Test_Network/condensed/network_17/Feeder_2/Loads - Copy.txt
New Load.LOAD1 Phases=1 Bus1=30.1 kV=0.23 kW=1 PF=0.95
New Load.LOAD2 Phases=1 Bus1=110.1 kV=0.23 kW=1 PF=0.95
New Load.LOAD3 Phases=1 Bus1=118.3 kV=0.23 kW=1 PF=0.95
New Load.LOAD4 Phases=1 Bus1=186.3 kV=0.23 kW=1 PF=0.95
New Load.LOAD5 Phases=1 Bus1=193.1 kV=0.23 kW=1 PF=0.95
New Load.LOAD6 Phases=1 Bus1=254.1 kV=0.23 kW=1 PF=0.95
New Load.LOAD7 Phases=1 Bus1=259.3 kV=0.23 kW=1 PF=0.95
New Load.LOAD8 Phases=1 Bus1=460.1 kV=0.23 kW=1 PF=0.95
